
**** 05/07/25 21:28:40 ******* PSpice Lite (March 2016) ******* ID# 10813 ****

 ** Profile: "SCHEMATIC1-sim3"  [ C:\EEC 111 Labs\Lab #3\Lab #3-PSpiceFiles\SCHEMATIC1\sim3.sim ] 


 ****     CIRCUIT DESCRIPTION


******************************************************************************




** Creating circuit file "sim3.cir" 
** WARNING: THIS AUTOMATICALLY GENERATED FILE MAY BE OVERWRITTEN BY SUBSEQUENT SIMULATIONS

*Libraries: 
* Profile Libraries :
.INC "C:\EEC 111 Labs\Lab #3\Lab #3-PSpiceFiles\SCHEMATIC1\sim3\sim3_profile.inc" 
* Local Libraries :
* From [PSPICE NETLIST] section of C:\Users\herob\AppData\Roaming\SPB_Data\cdssetup\OrCAD_PSpice\17.2.0\PSpice.ini file:

**** INCLUDING sim3_profile.inc ****
.LIB    ".\cd4007.lib" 

**** RESUMING sim3.cir ****
.lib "nomd.lib" 

*Analysis directives: 
.DC LIN V_VDSP 0 -5 -0.005 
+ V_VGSP LIST -1.0 -2.0 -3.0 -4.0 -5.0 
.OPTIONS ADVCONV
.PROBE64 V(alias(*)) I(alias(*)) W(alias(*)) D(alias(*)) NOISE(alias(*)) 
.INC "..\SCHEMATIC1.net" 



**** INCLUDING SCHEMATIC1.net ****
* source LAB #3
M_M2         0 NVGSP NVDSP 0 ppMOS           
V_VDSP         0 NVDSP 5Vdc
V_VGSP         0 NVGSP 5Vdc

**** RESUMING sim3.cir ****
.END

**** 05/07/25 21:28:40 ******* PSpice Lite (March 2016) ******* ID# 10813 ****

 ** Profile: "SCHEMATIC1-sim3"  [ C:\EEC 111 Labs\Lab #3\Lab #3-PSpiceFiles\SCHEMATIC1\sim3.sim ] 


 ****     MOSFET MODEL PARAMETERS


******************************************************************************




               ppMOS           
               PMOS            
       LEVEL    2            
           L  100.000000E-06 
           W  100.000000E-06 
         VTO   -1            
          KP  600.000000E-06 
       GAMMA    0            
         PHI     .6          
      LAMBDA     .01         
          IS   10.000000E-15 
          JS    0            
          PB     .8          
        PBSW     .8          
          CJ    0            
        CJSW    0            
        CGSO    0            
        CGDO    0            
        CGBO    0            
         TOX  100.000000E-09 
          XJ    0            
       UCRIT   10.000000E+03 
      DIOMOD    1            
         VFB    0            
        LETA    0            
        WETA    0            
          U0    0            
        TEMP    0            
         VDD    5            
       XPART    0            


Starting pseudo-transient algorithm.

ERROR -- Convergence problem in DC sweep


  Last node voltages tried were:

 NODE   VOLTAGE     NODE   VOLTAGE     NODE   VOLTAGE     NODE   VOLTAGE


(NVDSP)    1.4293  (NVGSP)     .9995  


  These supply currents failed to converge:

    I(V_VDSP)                 =    30.29pA  \    10.00GA
    I(V_VGSP)                 =         0A  \  -232.83pA

  These devices failed to converge:
    M_M2      

ERROR(ORPSIM-15659): Discontinuing simulation due to convergence problem

**** Interrupt ****
