
**** 06/05/25 14:42:40 ******* PSpice Lite (March 2016) ******* ID# 10813 ****

 ** Profile: "SCHEMATIC1-sim6"  [ C:\EEC 111 Labs\Lab #6\Lab #6-PSpiceFiles\SCHEMATIC1\sim6.sim ] 


 ****     CIRCUIT DESCRIPTION


******************************************************************************




** Creating circuit file "sim6.cir" 
** WARNING: THIS AUTOMATICALLY GENERATED FILE MAY BE OVERWRITTEN BY SUBSEQUENT SIMULATIONS

*Libraries: 
* Profile Libraries :
.INC "C:\EEC 111 Labs\Lab #6\Lab #6-PSpiceFiles\SCHEMATIC1\sim6\sim6_profile.inc" 
* Local Libraries :
* From [PSPICE NETLIST] section of C:\Users\herob\AppData\Roaming\SPB_Data\cdssetup\OrCAD_PSpice\17.2.0\PSpice.ini file:

**** INCLUDING sim6_profile.inc ****
.INC    ".\InverterRingOscillatorsInitialConditions.inc" 

**** INCLUDING InverterRingOscillatorsInitialConditions.inc ****
.ic V(nY0)=1.8 V(nY4)=0.0

**** RESUMING sim6_profile.inc ****
.LIB    ".\UCD_mos_models.lib" 

**** RESUMING sim6.cir ****
.lib "nomd.lib" 

*Analysis directives: 
.TRAN  0 2n 0 1p 
.OPTIONS ADVCONV
.PROBE64 V(alias(*)) I(alias(*)) W(alias(*)) D(alias(*)) NOISE(alias(*)) 
.INC "..\SCHEMATIC1.net" 



**** INCLUDING SCHEMATIC1.net ****
* source LAB #6
M_M5         N00239 NY3 NY4 N00239 TSMC180nmP  
+ L=180n  
+ W=1350n         
M_M6         NY4 NY3 0 0 TSMC180nmN  
+ L=180n  
+ W=450n         
V_V_DD4         N00239 0 1.8Vdc
M_M7         N00937 NY4 NY0 N00937 TSMC180nmP  
+ L=180n  
+ W=1350n         
M_M8         NY0 NY4 0 0 TSMC180nmN  
+ L=180n  
+ W=450n         
V_V_DD0         N00937 0 1.8Vdc
V_V_DD1         N01399 0 1.8Vdc
M_M9         N01399 NY0 NY1 N01399 TSMC180nmP  
+ L=180n  
+ W=1350n         
M_M10         NY1 NY0 0 0 TSMC180nmN  
+ L=180n  
+ W=450n         
V_V_DD2         N01869 0 1.8Vdc
M_M12         NY2 NY1 0 0 TSMC180nmN  
+ L=180n  
+ W=450n         
M_M11         N01869 NY1 NY2 N01869 TSMC180nmP  
+ L=180n  
+ W=1350n         
V_V_DD3         N02347 0 1.8Vdc
M_M13         N02347 NY2 NY3 N02347 TSMC180nmP  
+ L=180n  
+ W=1350n         
M_M14         NY3 NY2 0 0 TSMC180nmN  
+ L=180n  
+ W=450n         

**** RESUMING sim6.cir ****
.END

WARNING(ORPSIM-15235): Mosfet M_M5, model TSMC180nmP: Pd = 0 is less than W

WARNING(ORPSIM-15235): Mosfet M_M5, model TSMC180nmP: Ps = 0 is less than W

WARNING(ORPSIM-15235): Mosfet M_M7, model TSMC180nmP: Pd = 0 is less than W

WARNING(ORPSIM-15235): Mosfet M_M7, model TSMC180nmP: Ps = 0 is less than W

WARNING(ORPSIM-15235): Mosfet M_M9, model TSMC180nmP: Pd = 0 is less than W

WARNING(ORPSIM-15235): Mosfet M_M9, model TSMC180nmP: Ps = 0 is less than W

WARNING(ORPSIM-15235): Mosfet M_M11, model TSMC180nmP: Pd = 0 is less than W

WARNING(ORPSIM-15235): Mosfet M_M11, model TSMC180nmP: Ps = 0 is less than W

WARNING(ORPSIM-15235): Mosfet M_M13, model TSMC180nmP: Pd = 0 is less than W

WARNING(ORPSIM-15235): Mosfet M_M13, model TSMC180nmP: Ps = 0 is less than W

WARNING(ORPSIM-15235): Mosfet M_M6, model TSMC180nmN: Pd = 0 is less than W

WARNING(ORPSIM-15235): Mosfet M_M6, model TSMC180nmN: Ps = 0 is less than W

WARNING(ORPSIM-15235): Mosfet M_M8, model TSMC180nmN: Pd = 0 is less than W

WARNING(ORPSIM-15235): Mosfet M_M8, model TSMC180nmN: Ps = 0 is less than W

WARNING(ORPSIM-15235): Mosfet M_M10, model TSMC180nmN: Pd = 0 is less than W

WARNING(ORPSIM-15235): Mosfet M_M10, model TSMC180nmN: Ps = 0 is less than W

WARNING(ORPSIM-15235): Mosfet M_M12, model TSMC180nmN: Pd = 0 is less than W

WARNING(ORPSIM-15235): Mosfet M_M12, model TSMC180nmN: Ps = 0 is less than W

WARNING(ORPSIM-15235): Mosfet M_M14, model TSMC180nmN: Pd = 0 is less than W

WARNING(ORPSIM-15235): Mosfet M_M14, model TSMC180nmN: Ps = 0 is less than W

INFO(ORPSIM-15454): Model TSMC180nmP: Using BSIM VERSION 3.1 or lower

INFO(ORPSIM-15454): Model TSMC180nmN: Using BSIM VERSION 3.1 or lower

**** 06/05/25 14:42:40 ******* PSpice Lite (March 2016) ******* ID# 10813 ****

 ** Profile: "SCHEMATIC1-sim6"  [ C:\EEC 111 Labs\Lab #6\Lab #6-PSpiceFiles\SCHEMATIC1\sim6.sim ] 


 ****     MOSFET MODEL PARAMETERS


******************************************************************************




               TSMC180nmP      TSMC180nmN      
               PMOS            NMOS            
  T_Measured   27              27            
   T_Current   27              27            
       LEVEL    7               7            
           L  100.000000E-06  100.000000E-06 
           W  100.000000E-06  100.000000E-06 
         VTO    -.412061         .354505     
          KP  505.338100E-06  505.338100E-06 
       GAMMA    0               0            
      LAMBDA    0               0            
         RSH    7.7             6.8          
          IS    1.000000E-15    1.000000E-15 
          JS  100.000000E-06  100.000000E-06 
          PB     .854526         .73443      
        PBSW     .6163           .80055      
          CJ    1.179334E-03    1.010083E-03 
        CJSW  221.587700E-12  244.170700E-12 
          MJ     .411775         .356507     
        MJSW     .267807         .132784     
        CGSO  711.000000E-12  770.000000E-12 
        CGDO  711.000000E-12  770.000000E-12 
        CGBO    1.000000E-12    1.000000E-12 
         TOX    4.100000E-09    4.100000E-09 
          XJ  100.000000E-09  100.000000E-09 
       UCRIT   10.000000E+03   10.000000E+03 
       DELTA     .01             .01         
      DIOMOD    2               2            
          K1     .559015         .573339     
          K2     .03539         3.177172E-03 
        LETA    0               0            
        WETA    0               0            
          U0  128.7705        327.3737       
       XPART     .5              .5          
        VTH0    -.412061         .354505     
          K3    0              27.35633      
          W0    1.000000E-06   23.414770E-06 
         NLX  110.336700E-09  190.661700E-09 
        DVT0     .430152        1.675172     
        DVT1     .215689         .428263     
          UA    1.908676E-09  -45.272600E-12 
          UB    1.686179E-21  446.532000E-21 
          UC  -93.132900E-12  -47.405100E-12 
        VSAT  165.894400E+03   87.853460E+03 
        RDSW  127.0443        105            
        VOFF    -.097417        -.065297     
     NFACTOR    1.974045        2.490185     
        PCLM    4.884296         .851235     
      PDIBL1     .015623         .092953     
      PDIBL2     .1              .01         
       DROUT    0                .522403     
      PSCBE1    1.733878E+09   79.793230E+09 
      PSCBE2  500.284200E-12    1.522921E-09 
          A0    1.607651        1.689741     
          A1     .024494      800.349000E-06 
          A2    1               1            
       NPEAK  415.890000E+15  235.490000E+15 
         LDD    0               0            
        LITL   35.071360E-09   35.071360E-09 
         UA1    4.310000E-09    4.310000E-09 
         UB1   -7.610000E-18   -7.610000E-18 
         UC1  -56.000000E-12  -56.000000E-12 
        PVAG   15                .01         
        KETA     .021095         .021238     
        ETA0     .184749         .023156     
        ETAB    -.253117        -.058499     
         K3B    7.377457      -10            
        DVT2     .1              .036004     
        DSUB    1.5              .946712     
      MOBMOD    1               1            
         AGS     .374052         .290868     
       DVT1W    0               0            
       DVT2W    0               0            
        PRWG     .5              .5          
        PRWB    -.5             -.2          
     PDIBLCB   -1.000000E-03    -.1          
         DWG  -24.530740E-09    1.610448E-09 
         DWB    6.408778E-09   -5.108595E-09 
          B0    1.711294E-06   -8.224961E-09 
          B1    4.946873E-06 -100.000000E-09 
        LINT   24.688050E-09   13.517370E-09 
        WINT  542.848400E-12                 
         DLC   24.688050E-09   13.517370E-09 
         DWC  542.848400E-12    0            
          CF    0               0            
        NOIA    9.900000E+18  100.000000E+18 
        NOIB    2.400000E+03   50.000000E+03 
        NOIC    1.400000E-12   -1.400000E-12 
       LKETA    -.011608       -9.715157E-03 
       WKETA    2.438158E-03 -446.628500E-06 
       PVSAT  -50               1.707461E+03 
       PKETA -104.789200E-06    2.348777E-03 
       PVTH0    2.283319E-03    1.307195E-03 
         PUA  -76.239200E-12   44.218160E-12 
         PUB    4.502298E-24                 
         PU0   -2.251458       12.27048      
       PRDSW    5.643199       -5            
       PETA0  100.000000E-06  100.000000E-06 
         PK2    2.813503E-03   -1.022757E-03 
         VTM     .025864         .025864     
     VERSION    3.1             3.1          
       PBSWG     .6163           .80055      
       MJSWG     .267807         .132784     
       CJSWG  422.000000E-12  330.000000E-12 


WARNING(ORPSIM-15235): Mosfet M_M5, model TSMC180nmP: Pd = 0 is less than W

WARNING(ORPSIM-15235): Mosfet M_M5, model TSMC180nmP: Ps = 0 is less than W

WARNING(ORPSIM-15235): Mosfet M_M6, model TSMC180nmN: Pd = 0 is less than W

WARNING(ORPSIM-15235): Mosfet M_M6, model TSMC180nmN: Ps = 0 is less than W

**** 06/05/25 14:42:40 ******* PSpice Lite (March 2016) ******* ID# 10813 ****

 ** Profile: "SCHEMATIC1-sim6"  [ C:\EEC 111 Labs\Lab #6\Lab #6-PSpiceFiles\SCHEMATIC1\sim6.sim ] 


 ****     INITIAL TRANSIENT SOLUTION       TEMPERATURE =   27.000 DEG C


******************************************************************************



 NODE   VOLTAGE     NODE   VOLTAGE     NODE   VOLTAGE     NODE   VOLTAGE


(  nY0)    1.8000  (  NY1) 5.439E-09  (  NY2)    1.8000  (  NY3) 5.439E-09      

(  nY4) 703.4E-09  (N00239)    1.8000 (N00937)    1.8000 (N01399)    1.8000     

(N01869)    1.8000 (N02347)    1.8000 




    VOLTAGE SOURCE CURRENTS
    NAME         CURRENT

    V_V_DD4     -3.517E-04
    V_V_DD0     -5.421E-18
    V_V_DD1     -5.160E-12
    V_V_DD2     -4.187E-12
    V_V_DD3     -5.160E-12

    TOTAL POWER DISSIPATION   6.33E-04  WATTS



          JOB CONCLUDED

**** 06/05/25 14:42:40 ******* PSpice Lite (March 2016) ******* ID# 10813 ****

 ** Profile: "SCHEMATIC1-sim6"  [ C:\EEC 111 Labs\Lab #6\Lab #6-PSpiceFiles\SCHEMATIC1\sim6.sim ] 


 ****     JOB STATISTICS SUMMARY


******************************************************************************



  Total job time (using Solver 1)   =         .58
