
**** 05/01/25 09:10:57 ******* PSpice Lite (March 2016) ******* ID# 10813 ****

 ** Profile: "SCHEMATIC1-sim2"  [ C:\EEC 111 Labs\Lab #2\Lab #2-PSpiceFiles\SCHEMATIC1\sim2.sim ] 


 ****     CIRCUIT DESCRIPTION


******************************************************************************




** Creating circuit file "sim2.cir" 
** WARNING: THIS AUTOMATICALLY GENERATED FILE MAY BE OVERWRITTEN BY SUBSEQUENT SIMULATIONS

*Libraries: 
* Profile Libraries :
* Local Libraries :
* From [PSPICE NETLIST] section of C:\Users\herob\AppData\Roaming\SPB_Data\cdssetup\OrCAD_PSpice\17.2.0\PSpice.ini file:
.lib "nomd.lib" 

*Analysis directives: 
.TRAN  0 0.01s 0 0.000001 
.OPTIONS ADVCONV
.PROBE64 V(alias(*)) I(alias(*)) W(alias(*)) D(alias(*)) NOISE(alias(*)) 
.INC "..\SCHEMATIC1.net" 



**** INCLUDING SCHEMATIC1.net ****
* source LAB #2
V_V1         NVIN 0  
+SIN 0.0 2 1000 0 0 0
D_D1         NVIN NVOUTP D1N4002 
R_R1         NVOUTM NVOUTP  1k TC=0,0 
D_D3         NVOUTM NVIN D1N4002 
D_D2         0 NVOUTP D1N4002 
D_D4         NVOUTM N02269 D1N4002 
C_C1         NVOUTM NVOUTP  100n  TC=0,0 

**** RESUMING sim2.cir ****
.END

ERROR(ORPSIM-15141): Less than 2 connections at node N02269.
